/*--------------------------------*- C++ -*----------------------------------*\
| =========                 |                                                 |
| \\      /  F ield         | OpenFOAM: The Open Source CFD Toolbox           |
|  \\    /   O peration     | Version:  4.x                                   |
|   \\  /    A nd           | Web:      www.OpenFOAM.org                      |
|    \\/     M anipulation  |                                                 |
\*---------------------------------------------------------------------------*/
FoamFile
{
    version     2.0;
    format      ascii;
    class       dictionary;
    object      fvSolution;
}
// * * * * * * * * * * * * * * * * * * * * * * * * * * * * * * * * * * * * * //

solvers
{
    p
    {
        solver GAMG;
        tolerance 1e-11;
        relTol 0.0;
        smoother GaussSeidel;
        nPreSweeps 0;
        nPostSweeps 2;
        cacheAgglomeration on;
        agglomerator faceAreaPair;
        nCellsInCoarsestLevel 100;
        mergeLevels 1;
    }

    pFinal
    {
        $p;
        relTol 0;    
    }

    "(U|k|omega|epsilon).*"
    {
        solver PBiCGStab;
        preconditioner DILU;
        tolerance 1e-11;
        relTol 0;      
        minIter 3;
    }
}

PIMPLE
{
    nOuterCorrectors 3;
    nCorrectors 2;
    nNonOrthogonalCorrectors 2;

    pRefCell        0;
    pRefValue       0;
}

relaxationFactors
{
/*
    fields
    {
        p               0.3;
    }
    equations
    {
        U               0.7;
        k               0.7;
        omega           0.7;
    }
*/
}

// ************************************************************************* //
