/*--------------------------------*- C++ -*----------------------------------*\
| =========                 |                                                 |
| \\      /  F ield         | OpenFOAM: The Open Source CFD Toolbox           |
|  \\    /   O peration     | Version:  v1912                                 |
|   \\  /    A nd           | Website:  www.openfoam.com                      |
|    \\/     M anipulation  |                                                 |
\*---------------------------------------------------------------------------*/
FoamFile
{
    version     2.0;
    format      ascii;
    class       dictionary;
    location    "system";
    object      controlDict;
}
// * * * * * * * * * * * * * * * * * * * * * * * * * * * * * * * * * * * * * //

application     pimpleFoam;

startFrom       startTime;

startTime       0;

stopAt          endTime;

endTime         100.0;

deltaT          5e-3;

writeControl    timeStep;

writeInterval   1000;

purgeWrite      0;

//writeControl    none;

writeFormat     ascii;

writePrecision  8;

timeFormat      general;

timePrecision   8;

runTimeModifiable false;

//adjustTimeStep yes;
//maxCo 0.95;

functions
{
    forces
    {
        type            forceCoeffs;
        libs            (forces);
        writeControl    timeStep;
        writeInterval   1;
        log false;

        patches
        (
            cylinder_wall
            jet1
            jet2
        );

        rhoInf          1;
        rho             rhoInf;
        CofR            (0.0 0.0 0.005);
        liftDir         (0 1 0);
        dragDir         (1 0 0);
        magUInf         1.0;
        lRef            0.1;
        Aref            0.001;
    }
    preCICE_Adapter
    {
        type preciceAdapterFunctionObject;
        libs ("libpreciceAdapterFunctionObject.so");
    }
}


// ************************************************************************* //
