/*--------------------------------*- C++ -*----------------------------------*\
| =========                 |                                                 |
| \\      /  F ield         | OpenFOAM: The Open Source CFD Toolbox           |
|  \\    /   O peration     | Version:  2112                                  |
|   \\  /    A nd           | Website:  www.openfoam.com                      |
|    \\/     M anipulation  |                                                 |
\*---------------------------------------------------------------------------*/
FoamFile
{
    version     2.0;
    format      ascii;
    arch        "LSB;label=32;scalar=64";
    class       polyBoundaryMesh;
    location    "constant/polyMesh";
    object      boundary;
}
// * * * * * * * * * * * * * * * * * * * * * * * * * * * * * * * * * * * * * //

10
(
    front
    {
        type            empty;
        inGroups        1(empty);
        nFaces          20969;
        startFace       41438;
    }
    back
    {
        type            empty;
        inGroups        1(empty);
        nFaces          20969;
        startFace       62407;
    }
    inlet
    {
        type            patch;
        nFaces          80;
        startFace       83376;
    }
    outlet
    {
        type            patch;
        nFaces          78;
        startFace       83456;
    }
    top
    {
        type            wall;
        inGroups        1(wall);
        nFaces          254;
        startFace       83534;
    }
    bottom
    {
        type            wall;
        inGroups        1(wall);
        nFaces          254;
        startFace       83788;
    }
    flap
    {
        type            wall;
        inGroups        1(wall);
        nFaces          201;
        startFace       84042;
    }
    cylinder
    {
        type            wall;
        inGroups        1(wall);
        nFaces          125;
        startFace       84243;
    }
    jet1
    {
        type            patch;
        nFaces          4;
        startFace       84368;
    }
    jet2
    {
        type            patch;
        nFaces          4;
        startFace       84372;
    }
)

// ************************************************************************* //
