/*--------------------------------*- C++ -*----------------------------------*\
| =========                 |                                                 |
| \\      /  F ield         | OpenFOAM: The Open Source CFD Toolbox           |
|  \\    /   O peration     | Version:  v1912                                 |
|   \\  /    A nd           | Website:  www.openfoam.com                      |
|    \\/     M anipulation  |                                                 |
\*---------------------------------------------------------------------------*/
FoamFile
{
    version     2.0;
    format      ascii;
    class       dictionary;
    location    "system";
    object      controlDict;
}
// * * * * * * * * * * * * * * * * * * * * * * * * * * * * * * * * * * * * * //
libs ("libCustomisedMeshTools.so" "libCustomisedBCs.so");

application     pimpleFoam;

startTime       latestTime;

stopAt          endTime;

endTime         0.01;

deltaT          5e-4;

writeControl   timeStep; //none; //adjustableRunTime;
writeInterval   1;

purgeWrite      1;

writeFormat     ascii;

writePrecision  8;

timeFormat      general;

timePrecision   8;

runTimeModifiable false;

adjustTimeStep false; //true;
maxCo 0.99;

functions
{
    forces
    {
        type            forceCoeffs;
        libs            (forces);
        writeControl    timeStep;
        writeInterval   1;
        log false;
        
        patches
        (
            cylinder_wall
            jet1
            jet2
        );
	
	rho rhoInf;
        rhoInf 1.0;
        CofR (0.0 0 0);
        liftDir (0 1 0);
        dragDir (1 0 0);
        pitchAxis (0 0 1);
        magUInf 1.0;
        lRef 0.1;           
        Aref 0.001;         
    }

    Jet1FlowRate
    {
        type            surfaceFieldValue;
        libs            ("libfieldFunctionObjects.so");

        log             true;
        writeControl    timeStep;
        writeFields     false;

        regionType      patch;
        name            jet1;

        operation        areaNormalIntegrate;

        fields
        (
            U
        );
    }
    Jet2FlowRate
    {
        type            surfaceFieldValue;
        libs            ("libfieldFunctionObjects.so");

        log             true;
        writeControl    timeStep;
        writeFields     false;

        regionType      patch;
        name            jet2;

        operation        areaNormalIntegrate;

        fields
        (
            U
        );
    }

    probes
    {
        type            probes;
        libs            (sampling);

        // Name of the directory for probe data
        name            probes;

        // Write at same frequency as fields
        writeControl    timeStep;
        //writeInterval   1;

        // Fields to be probed
        fields          (p);

        // Optional: do not recalculate cells if mesh moves
        fixedLocations  true;

        // Optional: interpolation scheme to use (default is cell)
        interpolationScheme cellPoint;

        probeLocations
        (
            (0.0 -0.05 0.005)
            (0.0 0.05 0.005)
            (0.075 -0.1 0.005)
            (0.075 0.0 0.005)
            (0.075 0.1 0.005)
            (0.15 -0.1 0.005)
            (0.15 0.0 0.005)
            (0.15 0.1 0.005)
            (0.3 -0.1 0.005)
            (0.3 0.0 0.005)
            (0.3 0.1 0.005)
        );

        // Optional: filter out points that haven't been found. Default
        //           is to include them (with value -VGREAT)
        includeOutOfBounds  true;
    }

   /* 
    preCICE_Adapter
    {
        type preciceAdapterFunctionObject;
        libs ("libpreciceAdapterFunctionObject.so");
    }
    */
}


// ************************************************************************* //
