/*--------------------------------*- C++ -*----------------------------------*\
| =========                 |                                                 |
| \\      /  F ield         | OpenFOAM: The Open Source CFD Toolbox           |
|  \\    /   O peration     | Version:  4.x                                   |
|   \\  /    A nd           | Web:      www.OpenFOAM.org                      |
|    \\/     M anipulation  |                                                 |
\*---------------------------------------------------------------------------*/
FoamFile
{
    version     2.0;
    format      ascii;
    class       dictionary;
    object      fvSolution;
}
// * * * * * * * * * * * * * * * * * * * * * * * * * * * * * * * * * * * * * //

solvers
{
    p
    {
        solver GAMG;
        tolerance 1e-8;
        relTol 0.001;
        smoother GaussSeidel;
        nPreSweeps 0;
        nPostSweeps 2;
        cacheAgglomeration on;
        agglomerator faceAreaPair;
        nCellsInCoarsestLevel 100;
        mergeLevels 1;
    }

    pFinal
    {
        $p;
        relTol 0;    
    }

    U
    {
        solver PBiCGStab;
        preconditioner DILU;
        tolerance 1e-8;
        relTol 0.001;    
    }
    
    UFinal
    {
        $U;
        relTol 0;    
    }
}

PIMPLE
{
    nOuterCorrectors    100;
    nCorrectors 2;
    nNonOrthogonalCorrectors 1;

    pRefCell        0;
    pRefValue       0;

    residualControl
    {
        p
        {
                tolerance  1e-4;
                relTol      0;
        }
        U
        {
                tolerance  1e-4;
                relTol      0;
        }
    }
}

relaxationFactors
{

    fields
        {
            p      0.3;
            pFinal   1;
        }
        equations
        {
            "U"     0.7;
            "(U)Final"   1;
        }

}

// ************************************************************************* //
