/*--------------------------------*- C++ -*----------------------------------*\
| =========                 |                                                 |
| \\      /  F ield         | OpenFOAM: The Open Source CFD Toolbox           |
|  \\    /   O peration     | Version:  2112                                  |
|   \\  /    A nd           | Website:  www.openfoam.com                      |
|    \\/     M anipulation  |                                                 |
\*---------------------------------------------------------------------------*/
FoamFile
{
    version     2.0;
    format      ascii;
    arch        "LSB;label=32;scalar=64";
    class       polyBoundaryMesh;
    location    "constant/polyMesh";
    object      boundary;
}
// * * * * * * * * * * * * * * * * * * * * * * * * * * * * * * * * * * * * * //

9
(
    inlet
    {
        type            patch;
        nFaces          21;
        startFace       11836;
    }
    outlet
    {
        type            patch;
        nFaces          0;
        startFace       11857;
    }
    top
    {
        type            wall;
        inGroups        1(wall);
        nFaces          12;
        startFace       11857;
    }
    bottom
    {
        type            wall;
        inGroups        1(wall);
        nFaces          12;
        startFace       11869;
    }
    cylinder
    {
        type            wall;
        inGroups        1(wall);
        nFaces          453;
        startFace       11881;
    }
    jet1
    {
        type            wall;
        inGroups        1(wall);
        nFaces          17;
        startFace       12334;
    }
    jet2
    {
        type            wall;
        inGroups        1(wall);
        nFaces          17;
        startFace       12351;
    }
    frontAndBack
    {
        type            empty;
        inGroups        1(empty);
        nFaces          16200;
        startFace       12368;
    }
    procBoundary0to1
    {
        type            processor;
        inGroups        1(processor);
        nFaces          96;
        startFace       28568;
        matchTolerance  0.0001;
        transform       unknown;
        myProcNo        0;
        neighbProcNo    1;
    }
)

// ************************************************************************* //
